*** SPICE deck for cell topLevel{lay} from library LF-Adder_exp
*** Created on Thu Nov 22, 2012 14:44:52
*** Last revised on Thu Nov 22, 2012 14:48:24
*** Written on Thu Nov 22, 2012 14:48:50 by Electric VLSI Design System, 
*version 9.03
*** Layout tech: mocmos, foundry MOSIS
*** UC SPICE *** , MIN_RESIST 4.0, MIN_CAPAC 0.1FF
***    P-Active:	areacap=0.9FF/um^2,	edgecap=0.0FF/um,	res=2.5ohms/sq
***    N-Active:	areacap=0.9FF/um^2,	edgecap=0.0FF/um,	res=3.0ohms/sq
***    
*Polysilicon-1:	areacap=0.1467FF/um^2,	edgecap=0.0608FF/um,	res=6.2ohms/sq
***    Polysilicon-2:	areacap=1.0FF/um^2,	edgecap=0.0FF/um,	res=50.0ohms/sq
***    Transistor-Poly:	areacap=0.09FF/um^2,	edgecap=0.0FF/um,	res=2.5ohms/sq
***    Poly-Cut:	areacap=0.0FF/um^2,	edgecap=0.0FF/um,	res=2.2ohms/sq
***    Active-Cut:	areacap=0.0FF/um^2,	edgecap=0.0FF/um,	res=2.5ohms/sq
***    Metal-1:	areacap=0.1209FF/um^2,	edgecap=0.1104FF/um,	res=0.078ohms/sq
***    Via1:	areacap=0.0FF/um^2,	edgecap=0.0FF/um,	res=1.0ohms/sq
***    Metal-2:	areacap=0.0843FF/um^2,	edgecap=0.0974FF/um,	res=0.078ohms/sq
***    Via2:	areacap=0.0FF/um^2,	edgecap=0.0FF/um,	res=0.9ohms/sq
***    Metal-3:	areacap=0.0843FF/um^2,	edgecap=0.0974FF/um,	res=0.078ohms/sq
***    Via3:	areacap=0.0FF/um^2,	edgecap=0.0FF/um,	res=0.8ohms/sq
***    Metal-4:	areacap=0.0843FF/um^2,	edgecap=0.0974FF/um,	res=0.078ohms/sq
***    Via4:	areacap=0.0FF/um^2,	edgecap=0.0FF/um,	res=0.8ohms/sq
***    Metal-5:	areacap=0.0843FF/um^2,	edgecap=0.0974FF/um,	res=0.078ohms/sq
***    Via5:	areacap=0.0FF/um^2,	edgecap=0.0FF/um,	res=0.8ohms/sq
***    Metal-6:	areacap=0.0423FF/um^2,	edgecap=0.1273FF/um,	res=0.036ohms/sq
***    Hi-Res:	areacap=0.0FF/um^2,	edgecap=0.0FF/um,	res=1.0ohms/sq
*** Lambda Conversion ***
.opt scale=0.3U

.include "..\mosistsmc180.sp"

*** SUBCIRCUIT a2o1_2x FROM CELL a2o1_2x{lay}
.SUBCKT a2o1_2x 0 a b c vdd y
Mnmos_3 net_288 a#9nmos@3_poly-right 0 0 N L=2 W=6 AS=70 AD=12.75 PS=54 
+PD=11.5
Mnmos_4 net_259 b#5nmos@4_poly-right net_288 0 N L=2 W=6 AS=12.75 AD=27 
+PS=11.5 PD=17.333
Mnmos_5 0 c#5nmos@5_poly-right net_259 0 N L=2 W=6 AS=27 AD=70 PS=17.333 
+PD=54
Mnmos_6 y net_259#11nmos@6_poly-right 0 0 N L=2 W=14 AS=70 AD=85 PS=54 PD=44
Mpmos_4 vdd a#4pin@95_polysilicon-1 net_254 vdd P L=2 W=9 AS=33 AD=78 
+PS=19.333 PD=53.333
Mpmos_5 net_254 b#3pin@97_polysilicon-1 vdd vdd P L=2 W=9 AS=78 AD=33 
+PS=53.333 PD=19.333
Mpmos_6 net_259 c#1pin@100_polysilicon-1 net_254 vdd P L=2 W=9 AS=33 AD=27 
+PS=19.333 PD=17.333
Mpmos_8 vdd net_259#8pmos@8_poly-right y vdd P L=2 W=20 AS=85 AD=78 PS=44 
+PD=53.333
** Extracted Parasitic Capacitors ***
C0 a 0 0.346fF
C1 net_259 0 5.217fF
C2 b 0 0.343fF
C3 c 0 0.343fF
C4 net_254 0 3.556fF
C5 y 0 8.473fF
C6 b#5nmos@4_poly-right 0 0.138fF
C7 c#5nmos@5_poly-right 0 0.138fF
C8 net_259#11nmos@6_poly-right 0 0.173fF
C9 a#3pin@64_polysilicon-1 0 0.246fF
C10 a#0pin@65_polysilicon-1 0 0.309fF
C11 a#1pin@66_polysilicon-1 0 0.168fF
C12 a#4pin@95_polysilicon-1 0 0.168fF
C13 b#2pin@96_polysilicon-1 0 0.236fF
C14 b#3pin@97_polysilicon-1 0 0.157fF
C15 c#0pin@99_polysilicon-1 0 0.236fF
C16 c#1pin@100_polysilicon-1 0 0.157fF
C17 net_259#9pin@114_polysilicon-1 0 0.257fF
C18 net_259#8pmos@8_poly-right 0 0.184fF
** Extracted Parasitic Resistors ***
R0 a#0pin@65_polysilicon-1 a#0pin@65_polysilicon-1##0 7.75
C19 a#0pin@65_polysilicon-1##0 0 0.105fF
R1 a#0pin@65_polysilicon-1##0 a#1pin@66_polysilicon-1 7.75
R2 a#3pin@64_polysilicon-1 a#3pin@64_polysilicon-1##0 7.75
C20 a#3pin@64_polysilicon-1##0 0 0.105fF
R3 a#3pin@64_polysilicon-1##0 a#4pin@95_polysilicon-1 7.75
R4 b b##0 9.3
C21 b##0 0 0.141fF
R5 b##0 b##1 9.3
C22 b##1 0 0.141fF
R6 b##1 b#2pin@96_polysilicon-1 9.3
R7 b#2pin@96_polysilicon-1 b#3pin@97_polysilicon-1 9.3
R8 c#0pin@99_polysilicon-1 c#1pin@100_polysilicon-1 9.3
R9 a#3pin@64_polysilicon-1 a#3pin@64_polysilicon-1##0 9.3
C23 a#3pin@64_polysilicon-1##0 0 0.141fF
R10 a#3pin@64_polysilicon-1##0 a#3pin@64_polysilicon-1##1 9.3
C24 a#3pin@64_polysilicon-1##1 0 0.141fF
R11 a#3pin@64_polysilicon-1##1 a 9.3
R12 a a##0 9.3
C25 a##0 0 0.141fF
R13 a##0 a##1 9.3
C26 a##1 0 0.141fF
R14 a##1 a#0pin@65_polysilicon-1 9.3
R15 c c##0 9.3
C27 c##0 0 0.141fF
R16 c##0 c##1 9.3
C28 c##1 0 0.141fF
R17 c##1 c#0pin@99_polysilicon-1 9.3
R18 a#9nmos@3_poly-right a#1pin@66_polysilicon-1 6.2
R19 c c##0 8.525
C29 c##0 0 0.138fF
R20 c##0 c##1 8.525
C30 c##1 0 0.138fF
R21 c##1 c##2 8.525
C31 c##2 0 0.138fF
R22 c##2 c#5nmos@5_poly-right 8.525
R23 b b##0 8.525
C32 b##0 0 0.138fF
R24 b##0 b##1 8.525
C33 b##1 0 0.138fF
R25 b##1 b##2 8.525
C34 b##2 0 0.138fF
R26 b##2 b#5nmos@4_poly-right 8.525
R27 net_259#8pmos@8_poly-right net_259#8pmos@8_poly-right##0 9.817
C35 net_259#8pmos@8_poly-right##0 0 0.184fF
R28 net_259#8pmos@8_poly-right##0 net_259#8pmos@8_poly-right##1 9.817
C36 net_259#8pmos@8_poly-right##1 0 0.184fF
R29 net_259#8pmos@8_poly-right##1 net_259#8pmos@8_poly-right##2 9.817
C37 net_259#8pmos@8_poly-right##2 0 0.184fF
R30 net_259#8pmos@8_poly-right##2 net_259#8pmos@8_poly-right##3 9.817
C38 net_259#8pmos@8_poly-right##3 0 0.184fF
R31 net_259#8pmos@8_poly-right##3 net_259#8pmos@8_poly-right##4 9.817
C39 net_259#8pmos@8_poly-right##4 0 0.184fF
R32 net_259#8pmos@8_poly-right##4 net_259#8pmos@8_poly-right##5 9.817
C40 net_259#8pmos@8_poly-right##5 0 0.184fF
R33 net_259#8pmos@8_poly-right##5 net_259#8pmos@8_poly-right##6 9.817
C41 net_259#8pmos@8_poly-right##6 0 0.184fF
R34 net_259#8pmos@8_poly-right##6 net_259#8pmos@8_poly-right##7 9.817
C42 net_259#8pmos@8_poly-right##7 0 0.184fF
R35 net_259#8pmos@8_poly-right##7 net_259#8pmos@8_poly-right##8 9.817
C43 net_259#8pmos@8_poly-right##8 0 0.184fF
R36 net_259#8pmos@8_poly-right##8 net_259#8pmos@8_poly-right##9 9.817
C44 net_259#8pmos@8_poly-right##9 0 0.184fF
R37 net_259#8pmos@8_poly-right##9 net_259#8pmos@8_poly-right##10 9.817
C45 net_259#8pmos@8_poly-right##10 0 0.184fF
R38 net_259#8pmos@8_poly-right##10 net_259#9pin@114_polysilicon-1 9.817
R39 net_259#9pin@114_polysilicon-1 net_259#9pin@114_polysilicon-1##0 5.425
R40 net_259#9pin@114_polysilicon-1##0 net_259 5.425
R41 net_259#11nmos@6_poly-right net_259#11nmos@6_poly-right##0 9.743
C46 net_259#11nmos@6_poly-right##0 0 0.173fF
R42 net_259#11nmos@6_poly-right##0 net_259#11nmos@6_poly-right##1 9.743
C47 net_259#11nmos@6_poly-right##1 0 0.173fF
R43 net_259#11nmos@6_poly-right##1 net_259#11nmos@6_poly-right##2 9.743
C48 net_259#11nmos@6_poly-right##2 0 0.173fF
R44 net_259#11nmos@6_poly-right##2 net_259#11nmos@6_poly-right##3 9.743
C49 net_259#11nmos@6_poly-right##3 0 0.173fF
R45 net_259#11nmos@6_poly-right##3 net_259#11nmos@6_poly-right##4 9.743
C50 net_259#11nmos@6_poly-right##4 0 0.173fF
R46 net_259#11nmos@6_poly-right##4 net_259#11nmos@6_poly-right##5 9.743
C51 net_259#11nmos@6_poly-right##5 0 0.173fF
R47 net_259#11nmos@6_poly-right##5 net_259 9.743
.ENDS a2o1_2x

*** SUBCIRCUIT and2_2x FROM CELL and2_2x{lay}
.SUBCKT and2_2x 0 a b vdd y
Mnmos_0 net_72 a#1nmos@0_poly-right 0 0 N L=2 W=6 AS=70 AD=12.75 PS=52 
+PD=11.5
Mnmos_1 net_73 b#1nmos@1_poly-right net_72 0 N L=2 W=6 AS=12.75 AD=22 PS=11.5 
+PD=15.333
Mnmos_2 0 net_73#6nmos@2_poly-right y 0 N L=2 W=14 AS=85 AD=70 PS=44 PD=52
Mpmos_0 net_73 a#3pmos@0_poly-left vdd vdd P L=2 W=6 AS=66.667 AD=22 PS=46 
+PD=15.333
Mpmos_1 vdd b#5pmos@1_poly-left net_73 vdd P L=2 W=6 AS=22 AD=66.667 
+PS=15.333 PD=46
Mpmos_2 vdd net_73#3pmos@2_poly-left y vdd P L=2 W=20 AS=85 AD=66.667 PS=44 
+PD=46
** Extracted Parasitic Capacitors ***
C0 net_73 0 9.534fF
C1 y 0 5.049fF
C2 a 0 0.698fF
C3 a#1nmos@0_poly-right 0 0.157fF
C4 b#1nmos@1_poly-right 0 0.105fF
C5 net_73#6nmos@2_poly-right 0 0.173fF
C6 b#0pin@10_polysilicon-1 0 0.199fF
C7 net_73#2pin@22_polysilicon-1 0 0.435fF
C8 b#2pin@24_polysilicon-1 0 0.275fF
C9 b#3pin@25_polysilicon-1 0 0.426fF
C10 a#4pin@26_polysilicon-1 0 0.231fF
C11 a#5pin@27_polysilicon-1 0 0.214fF
C12 a#6pin@28_polysilicon-1 0 0.214fF
C13 a#7pin@30_polysilicon-1 0 0.165fF
C14 a#3pmos@0_poly-left 0 0.168fF
C15 b#5pmos@1_poly-left 0 0.151fF
C16 net_73#3pmos@2_poly-left 0 0.168fF
** Extracted Parasitic Resistors ***
R0 b#0pin@10_polysilicon-1 b#0pin@10_polysilicon-1##0 7.75
C17 b#0pin@10_polysilicon-1##0 0 0.105fF
R1 b#0pin@10_polysilicon-1##0 b#1nmos@1_poly-right 7.75
R2 a a##0 9.042
C18 a##0 0 0.157fF
R3 a##0 a##1 9.042
C19 a##1 0 0.157fF
R4 a##1 a##2 9.042
C20 a##2 0 0.157fF
R5 a##2 a##3 9.042
C21 a##3 0 0.157fF
R6 a##3 a##4 9.042
C22 a##4 0 0.157fF
R7 a##4 a#1nmos@0_poly-right 9.042
R8 net_73#2pin@22_polysilicon-1 net_73#2pin@22_polysilicon-1##0 9.92
C23 net_73#2pin@22_polysilicon-1##0 0 0.168fF
R9 net_73#2pin@22_polysilicon-1##0 net_73#2pin@22_polysilicon-1##1 9.92
C24 net_73#2pin@22_polysilicon-1##1 0 0.168fF
R10 net_73#2pin@22_polysilicon-1##1 net_73#2pin@22_polysilicon-1##2 9.92
C25 net_73#2pin@22_polysilicon-1##2 0 0.168fF
R11 net_73#2pin@22_polysilicon-1##2 net_73#2pin@22_polysilicon-1##3 9.92
C26 net_73#2pin@22_polysilicon-1##3 0 0.168fF
R12 net_73#2pin@22_polysilicon-1##3 net_73#3pmos@2_poly-left 9.92
R13 net_73#6nmos@2_poly-right net_73#6nmos@2_poly-right##0 9.743
C27 net_73#6nmos@2_poly-right##0 0 0.173fF
R14 net_73#6nmos@2_poly-right##0 net_73#6nmos@2_poly-right##1 9.743
C28 net_73#6nmos@2_poly-right##1 0 0.173fF
R15 net_73#6nmos@2_poly-right##1 net_73#6nmos@2_poly-right##2 9.743
C29 net_73#6nmos@2_poly-right##2 0 0.173fF
R16 net_73#6nmos@2_poly-right##2 net_73#6nmos@2_poly-right##3 9.743
C30 net_73#6nmos@2_poly-right##3 0 0.173fF
R17 net_73#6nmos@2_poly-right##3 net_73#6nmos@2_poly-right##4 9.743
C31 net_73#6nmos@2_poly-right##4 0 0.173fF
R18 net_73#6nmos@2_poly-right##4 net_73#6nmos@2_poly-right##5 9.743
C32 net_73#6nmos@2_poly-right##5 0 0.173fF
R19 net_73#6nmos@2_poly-right##5 net_73#2pin@22_polysilicon-1 9.743
R20 net_73 net_73#2pin@22_polysilicon-1 9.3
R21 b#2pin@24_polysilicon-1 b#2pin@24_polysilicon-1##0 9.521
C33 b#2pin@24_polysilicon-1##0 0 0.18fF
R22 b#2pin@24_polysilicon-1##0 b#2pin@24_polysilicon-1##1 9.521
C34 b#2pin@24_polysilicon-1##1 0 0.18fF
R23 b#2pin@24_polysilicon-1##1 b#2pin@24_polysilicon-1##2 9.521
C35 b#2pin@24_polysilicon-1##2 0 0.18fF
R24 b#2pin@24_polysilicon-1##2 b#2pin@24_polysilicon-1##3 9.521
C36 b#2pin@24_polysilicon-1##3 0 0.18fF
R25 b#2pin@24_polysilicon-1##3 b#2pin@24_polysilicon-1##4 9.521
C37 b#2pin@24_polysilicon-1##4 0 0.18fF
R26 b#2pin@24_polysilicon-1##4 b#2pin@24_polysilicon-1##5 9.521
C38 b#2pin@24_polysilicon-1##5 0 0.18fF
R27 b#2pin@24_polysilicon-1##5 b#2pin@24_polysilicon-1##6 9.521
C39 b#2pin@24_polysilicon-1##6 0 0.18fF
R28 b#2pin@24_polysilicon-1##6 b#2pin@24_polysilicon-1##7 9.521
C40 b#2pin@24_polysilicon-1##7 0 0.18fF
R29 b#2pin@24_polysilicon-1##7 b#2pin@24_polysilicon-1##8 9.521
C41 b#2pin@24_polysilicon-1##8 0 0.18fF
R30 b#2pin@24_polysilicon-1##8 b#2pin@24_polysilicon-1##9 9.521
C42 b#2pin@24_polysilicon-1##9 0 0.18fF
R31 b#2pin@24_polysilicon-1##9 b#2pin@24_polysilicon-1##10 9.521
C43 b#2pin@24_polysilicon-1##10 0 0.18fF
R32 b#2pin@24_polysilicon-1##10 b#2pin@24_polysilicon-1##11 9.521
C44 b#2pin@24_polysilicon-1##11 0 0.18fF
R33 b#2pin@24_polysilicon-1##11 b#2pin@24_polysilicon-1##12 9.521
C45 b#2pin@24_polysilicon-1##12 0 0.18fF
R34 b#2pin@24_polysilicon-1##12 b#3pin@25_polysilicon-1 9.521
R35 b#2pin@24_polysilicon-1 b#0pin@10_polysilicon-1 9.3
R36 b b#3pin@25_polysilicon-1 9.3
R37 a#3pmos@0_poly-left a#3pmos@0_poly-left##0 9.3
C46 a#3pmos@0_poly-left##0 0 0.168fF
R38 a#3pmos@0_poly-left##0 a#3pmos@0_poly-left##1 9.3
C47 a#3pmos@0_poly-left##1 0 0.168fF
R39 a#3pmos@0_poly-left##1 a#3pmos@0_poly-left##2 9.3
C48 a#3pmos@0_poly-left##2 0 0.168fF
R40 a#3pmos@0_poly-left##2 a#3pmos@0_poly-left##3 9.3
C49 a#3pmos@0_poly-left##3 0 0.168fF
R41 a#3pmos@0_poly-left##3 a#3pmos@0_poly-left##4 9.3
C50 a#3pmos@0_poly-left##4 0 0.168fF
R42 a#3pmos@0_poly-left##4 a#3pmos@0_poly-left##5 9.3
C51 a#3pmos@0_poly-left##5 0 0.168fF
R43 a#3pmos@0_poly-left##5 a#3pmos@0_poly-left##6 9.3
C52 a#3pmos@0_poly-left##6 0 0.168fF
R44 a#3pmos@0_poly-left##6 a#4pin@26_polysilicon-1 9.3
R45 a#4pin@26_polysilicon-1 a#5pin@27_polysilicon-1 6.2
R46 a#5pin@27_polysilicon-1 a#5pin@27_polysilicon-1##0 9.3
C53 a#5pin@27_polysilicon-1##0 0 0.151fF
R47 a#5pin@27_polysilicon-1##0 a#5pin@27_polysilicon-1##1 9.3
C54 a#5pin@27_polysilicon-1##1 0 0.151fF
R48 a#5pin@27_polysilicon-1##1 a#5pin@27_polysilicon-1##2 9.3
C55 a#5pin@27_polysilicon-1##2 0 0.151fF
R49 a#5pin@27_polysilicon-1##2 a#6pin@28_polysilicon-1 9.3
R50 a#7pin@30_polysilicon-1 a#7pin@30_polysilicon-1##0 6.717
C56 a#7pin@30_polysilicon-1##0 0 0.102fF
R51 a#7pin@30_polysilicon-1##0 a#7pin@30_polysilicon-1##1 6.717
C57 a#7pin@30_polysilicon-1##1 0 0.102fF
R52 a#7pin@30_polysilicon-1##1 a 6.717
R53 a#6pin@28_polysilicon-1 a#7pin@30_polysilicon-1 6.2
R54 b#3pin@25_polysilicon-1 b#3pin@25_polysilicon-1##0 9.3
C58 b#3pin@25_polysilicon-1##0 0 0.151fF
R55 b#3pin@25_polysilicon-1##0 b#3pin@25_polysilicon-1##1 9.3
C59 b#3pin@25_polysilicon-1##1 0 0.151fF
R56 b#3pin@25_polysilicon-1##1 b#3pin@25_polysilicon-1##2 9.3
C60 b#3pin@25_polysilicon-1##2 0 0.151fF
R57 b#3pin@25_polysilicon-1##2 b#5pmos@1_poly-left 9.3
.ENDS and2_2x

*** SUBCIRCUIT BlackCell_2x FROM CELL BlackCell_2x{lay}
.SUBCKT BlackCell_2x 0 G_i_j G_i_k G_k-1_j P_i_j P_i_k P_k-1_j vdd
Xa2o1_2x_0 0 P_i_k G_k-1_j G_i_k vdd G_i_j a2o1_2x
Xand2_2x_0 0 P_i_k P_k-1_j vdd P_i_j and2_2x
** Extracted Parasitic Capacitors ***
C0 P_i_k 0 7.331fF
** Extracted Parasitic Resistors ***
.ENDS BlackCell_2x

*** SUBCIRCUIT a2o1_1x FROM CELL a2o1_1x{lay}
.SUBCKT a2o1_1x 0 a b c vdd y
Mnmos_3 net_288 a#9nmos@3_poly-right 0 0 N L=2 W=6 AS=58.333 AD=12.75 
+PS=49.333 PD=11.5
Mnmos_4 net_259 b#5nmos@4_poly-right net_288 0 N L=2 W=6 AS=12.75 AD=27 
+PS=11.5 PD=17.333
Mnmos_5 0 c#5nmos@5_poly-right net_259 0 N L=2 W=6 AS=27 AD=58.333 PS=17.333 
+PD=49.333
Mnmos_6 y net_259#11nmos@6_poly-right 0 0 N L=2 W=7 AS=58.333 AD=42.5 
+PS=49.333 PD=27
Mpmos_4 vdd a#4pin@95_polysilicon-1 net_254 vdd P L=2 W=9 AS=33 AD=61.333 
+PS=19.333 PD=46.667
Mpmos_5 net_254 b#3pin@97_polysilicon-1 vdd vdd P L=2 W=9 AS=61.333 AD=33 
+PS=46.667 PD=19.333
Mpmos_6 net_259 c#1pin@100_polysilicon-1 net_254 vdd P L=2 W=9 AS=33 AD=27 
+PS=19.333 PD=17.333
Mpmos_8 vdd net_259#8pmos@8_poly-right y vdd P L=2 W=10 AS=42.5 AD=61.333 
+PS=27 PD=46.667
** Extracted Parasitic Capacitors ***
C0 a 0 0.346fF
C1 net_259 0 5.217fF
C2 b 0 0.343fF
C3 c 0 0.343fF
C4 net_254 0 3.556fF
C5 y 0 8.034fF
C6 b#5nmos@4_poly-right 0 0.138fF
C7 c#5nmos@5_poly-right 0 0.138fF
C8 net_259#11nmos@6_poly-right 0 0.173fF
C9 a#3pin@64_polysilicon-1 0 0.246fF
C10 a#0pin@65_polysilicon-1 0 0.309fF
C11 a#1pin@66_polysilicon-1 0 0.168fF
C12 a#4pin@95_polysilicon-1 0 0.168fF
C13 b#2pin@96_polysilicon-1 0 0.236fF
C14 b#3pin@97_polysilicon-1 0 0.157fF
C15 c#0pin@99_polysilicon-1 0 0.236fF
C16 c#1pin@100_polysilicon-1 0 0.157fF
C17 net_259#9pin@114_polysilicon-1 0 0.257fF
C18 net_259#8pmos@8_poly-right 0 0.184fF
** Extracted Parasitic Resistors ***
R0 a#0pin@65_polysilicon-1 a#0pin@65_polysilicon-1##0 7.75
C19 a#0pin@65_polysilicon-1##0 0 0.105fF
R1 a#0pin@65_polysilicon-1##0 a#1pin@66_polysilicon-1 7.75
R2 a#3pin@64_polysilicon-1 a#3pin@64_polysilicon-1##0 7.75
C20 a#3pin@64_polysilicon-1##0 0 0.105fF
R3 a#3pin@64_polysilicon-1##0 a#4pin@95_polysilicon-1 7.75
R4 b b##0 9.3
C21 b##0 0 0.141fF
R5 b##0 b##1 9.3
C22 b##1 0 0.141fF
R6 b##1 b#2pin@96_polysilicon-1 9.3
R7 b#2pin@96_polysilicon-1 b#3pin@97_polysilicon-1 9.3
R8 c#0pin@99_polysilicon-1 c#1pin@100_polysilicon-1 9.3
R9 a#3pin@64_polysilicon-1 a#3pin@64_polysilicon-1##0 9.3
C23 a#3pin@64_polysilicon-1##0 0 0.141fF
R10 a#3pin@64_polysilicon-1##0 a#3pin@64_polysilicon-1##1 9.3
C24 a#3pin@64_polysilicon-1##1 0 0.141fF
R11 a#3pin@64_polysilicon-1##1 a 9.3
R12 a a##0 9.3
C25 a##0 0 0.141fF
R13 a##0 a##1 9.3
C26 a##1 0 0.141fF
R14 a##1 a#0pin@65_polysilicon-1 9.3
R15 c c##0 9.3
C27 c##0 0 0.141fF
R16 c##0 c##1 9.3
C28 c##1 0 0.141fF
R17 c##1 c#0pin@99_polysilicon-1 9.3
R18 a#9nmos@3_poly-right a#1pin@66_polysilicon-1 6.2
R19 c c##0 8.525
C29 c##0 0 0.138fF
R20 c##0 c##1 8.525
C30 c##1 0 0.138fF
R21 c##1 c##2 8.525
C31 c##2 0 0.138fF
R22 c##2 c#5nmos@5_poly-right 8.525
R23 b b##0 8.525
C32 b##0 0 0.138fF
R24 b##0 b##1 8.525
C33 b##1 0 0.138fF
R25 b##1 b##2 8.525
C34 b##2 0 0.138fF
R26 b##2 b#5nmos@4_poly-right 8.525
R27 net_259#8pmos@8_poly-right net_259#8pmos@8_poly-right##0 9.817
C35 net_259#8pmos@8_poly-right##0 0 0.184fF
R28 net_259#8pmos@8_poly-right##0 net_259#8pmos@8_poly-right##1 9.817
C36 net_259#8pmos@8_poly-right##1 0 0.184fF
R29 net_259#8pmos@8_poly-right##1 net_259#8pmos@8_poly-right##2 9.817
C37 net_259#8pmos@8_poly-right##2 0 0.184fF
R30 net_259#8pmos@8_poly-right##2 net_259#8pmos@8_poly-right##3 9.817
C38 net_259#8pmos@8_poly-right##3 0 0.184fF
R31 net_259#8pmos@8_poly-right##3 net_259#8pmos@8_poly-right##4 9.817
C39 net_259#8pmos@8_poly-right##4 0 0.184fF
R32 net_259#8pmos@8_poly-right##4 net_259#8pmos@8_poly-right##5 9.817
C40 net_259#8pmos@8_poly-right##5 0 0.184fF
R33 net_259#8pmos@8_poly-right##5 net_259#8pmos@8_poly-right##6 9.817
C41 net_259#8pmos@8_poly-right##6 0 0.184fF
R34 net_259#8pmos@8_poly-right##6 net_259#8pmos@8_poly-right##7 9.817
C42 net_259#8pmos@8_poly-right##7 0 0.184fF
R35 net_259#8pmos@8_poly-right##7 net_259#8pmos@8_poly-right##8 9.817
C43 net_259#8pmos@8_poly-right##8 0 0.184fF
R36 net_259#8pmos@8_poly-right##8 net_259#8pmos@8_poly-right##9 9.817
C44 net_259#8pmos@8_poly-right##9 0 0.184fF
R37 net_259#8pmos@8_poly-right##9 net_259#8pmos@8_poly-right##10 9.817
C45 net_259#8pmos@8_poly-right##10 0 0.184fF
R38 net_259#8pmos@8_poly-right##10 net_259#9pin@114_polysilicon-1 9.817
R39 net_259#9pin@114_polysilicon-1 net_259#9pin@114_polysilicon-1##0 5.425
R40 net_259#9pin@114_polysilicon-1##0 net_259 5.425
R41 net_259#11nmos@6_poly-right net_259#11nmos@6_poly-right##0 9.743
C46 net_259#11nmos@6_poly-right##0 0 0.173fF
R42 net_259#11nmos@6_poly-right##0 net_259#11nmos@6_poly-right##1 9.743
C47 net_259#11nmos@6_poly-right##1 0 0.173fF
R43 net_259#11nmos@6_poly-right##1 net_259#11nmos@6_poly-right##2 9.743
C48 net_259#11nmos@6_poly-right##2 0 0.173fF
R44 net_259#11nmos@6_poly-right##2 net_259#11nmos@6_poly-right##3 9.743
C49 net_259#11nmos@6_poly-right##3 0 0.173fF
R45 net_259#11nmos@6_poly-right##3 net_259#11nmos@6_poly-right##4 9.743
C50 net_259#11nmos@6_poly-right##4 0 0.173fF
R46 net_259#11nmos@6_poly-right##4 net_259#11nmos@6_poly-right##5 9.743
C51 net_259#11nmos@6_poly-right##5 0 0.173fF
R47 net_259#11nmos@6_poly-right##5 net_259 9.743
.ENDS a2o1_1x

*** SUBCIRCUIT and2_1x FROM CELL and2_1x{lay}
.SUBCKT and2_1x 0 a b vdd y
Mnmos_0 net_72 a#1nmos@0_poly-right 0 0 N L=2 W=6 AS=52.5 AD=12.75 PS=45 
+PD=11.5
Mnmos_1 net_73 b#1nmos@1_poly-right net_72 0 N L=2 W=6 AS=12.75 AD=22 PS=11.5 
+PD=15.333
Mnmos_2 0 net_73#6nmos@2_poly-right y 0 N L=2 W=7 AS=42.5 AD=52.5 PS=27 PD=45
Mpmos_0 net_73 a#3pmos@0_poly-left vdd vdd P L=2 W=6 AS=50 AD=22 PS=39.333 
+PD=15.333
Mpmos_1 vdd b#5pmos@1_poly-left net_73 vdd P L=2 W=6 AS=22 AD=50 PS=15.333 
+PD=39.333
Mpmos_2 vdd net_73#3pmos@2_poly-left y vdd P L=2 W=10 AS=42.5 AD=50 PS=27 
+PD=39.333
** Extracted Parasitic Capacitors ***
C0 net_73 0 9.534fF
C1 y 0 6.915fF
C2 a 0 0.702fF
C3 a#1nmos@0_poly-right 0 0.153fF
C4 b#1nmos@1_poly-right 0 0.105fF
C5 net_73#6nmos@2_poly-right 0 0.182fF
C6 b#0pin@10_polysilicon-1 0 0.199fF
C7 net_73#2pin@22_polysilicon-1 0 0.44fF
C8 b#2pin@24_polysilicon-1 0 0.275fF
C9 b#3pin@25_polysilicon-1 0 0.426fF
C10 a#4pin@26_polysilicon-1 0 0.231fF
C11 a#5pin@27_polysilicon-1 0 0.214fF
C12 a#6pin@28_polysilicon-1 0 0.214fF
C13 a#7pin@30_polysilicon-1 0 0.173fF
C14 a#3pmos@0_poly-left 0 0.168fF
C15 b#5pmos@1_poly-left 0 0.151fF
C16 net_73#3pmos@2_poly-left 0 0.164fF
** Extracted Parasitic Resistors ***
R0 b#0pin@10_polysilicon-1 b#0pin@10_polysilicon-1##0 7.75
C17 b#0pin@10_polysilicon-1##0 0 0.105fF
R1 b#0pin@10_polysilicon-1##0 b#1nmos@1_poly-right 7.75
R2 a a##0 8.783
C18 a##0 0 0.153fF
R3 a##0 a##1 8.783
C19 a##1 0 0.153fF
R4 a##1 a##2 8.783
C20 a##2 0 0.153fF
R5 a##2 a##3 8.783
C21 a##3 0 0.153fF
R6 a##3 a##4 8.783
C22 a##4 0 0.153fF
R7 a##4 a#1nmos@0_poly-right 8.783
R8 net_73#2pin@22_polysilicon-1 net_73#2pin@22_polysilicon-1##0 8.956
C23 net_73#2pin@22_polysilicon-1##0 0 0.164fF
R9 net_73#2pin@22_polysilicon-1##0 net_73#2pin@22_polysilicon-1##1 8.956
C24 net_73#2pin@22_polysilicon-1##1 0 0.164fF
R10 net_73#2pin@22_polysilicon-1##1 net_73#2pin@22_polysilicon-1##2 8.956
C25 net_73#2pin@22_polysilicon-1##2 0 0.164fF
R11 net_73#2pin@22_polysilicon-1##2 net_73#2pin@22_polysilicon-1##3 8.956
C26 net_73#2pin@22_polysilicon-1##3 0 0.164fF
R12 net_73#2pin@22_polysilicon-1##3 net_73#2pin@22_polysilicon-1##4 8.956
C27 net_73#2pin@22_polysilicon-1##4 0 0.164fF
R13 net_73#2pin@22_polysilicon-1##4 net_73#2pin@22_polysilicon-1##5 8.956
C28 net_73#2pin@22_polysilicon-1##5 0 0.164fF
R14 net_73#2pin@22_polysilicon-1##5 net_73#2pin@22_polysilicon-1##6 8.956
C29 net_73#2pin@22_polysilicon-1##6 0 0.164fF
R15 net_73#2pin@22_polysilicon-1##6 net_73#2pin@22_polysilicon-1##7 8.956
C30 net_73#2pin@22_polysilicon-1##7 0 0.164fF
R16 net_73#2pin@22_polysilicon-1##7 net_73#3pmos@2_poly-left 8.956
R17 net_73#6nmos@2_poly-right net_73#6nmos@2_poly-right##0 9.989
C31 net_73#6nmos@2_poly-right##0 0 0.182fF
R18 net_73#6nmos@2_poly-right##0 net_73#6nmos@2_poly-right##1 9.989
C32 net_73#6nmos@2_poly-right##1 0 0.182fF
R19 net_73#6nmos@2_poly-right##1 net_73#6nmos@2_poly-right##2 9.989
C33 net_73#6nmos@2_poly-right##2 0 0.182fF
R20 net_73#6nmos@2_poly-right##2 net_73#6nmos@2_poly-right##3 9.989
C34 net_73#6nmos@2_poly-right##3 0 0.182fF
R21 net_73#6nmos@2_poly-right##3 net_73#6nmos@2_poly-right##4 9.989
C35 net_73#6nmos@2_poly-right##4 0 0.182fF
R22 net_73#6nmos@2_poly-right##4 net_73#6nmos@2_poly-right##5 9.989
C36 net_73#6nmos@2_poly-right##5 0 0.182fF
R23 net_73#6nmos@2_poly-right##5 net_73#6nmos@2_poly-right##6 9.989
C37 net_73#6nmos@2_poly-right##6 0 0.182fF
R24 net_73#6nmos@2_poly-right##6 net_73#6nmos@2_poly-right##7 9.989
C38 net_73#6nmos@2_poly-right##7 0 0.182fF
R25 net_73#6nmos@2_poly-right##7 net_73#2pin@22_polysilicon-1 9.989
R26 net_73 net_73#2pin@22_polysilicon-1 9.3
R27 b#2pin@24_polysilicon-1 b#2pin@24_polysilicon-1##0 9.521
C39 b#2pin@24_polysilicon-1##0 0 0.18fF
R28 b#2pin@24_polysilicon-1##0 b#2pin@24_polysilicon-1##1 9.521
C40 b#2pin@24_polysilicon-1##1 0 0.18fF
R29 b#2pin@24_polysilicon-1##1 b#2pin@24_polysilicon-1##2 9.521
C41 b#2pin@24_polysilicon-1##2 0 0.18fF
R30 b#2pin@24_polysilicon-1##2 b#2pin@24_polysilicon-1##3 9.521
C42 b#2pin@24_polysilicon-1##3 0 0.18fF
R31 b#2pin@24_polysilicon-1##3 b#2pin@24_polysilicon-1##4 9.521
C43 b#2pin@24_polysilicon-1##4 0 0.18fF
R32 b#2pin@24_polysilicon-1##4 b#2pin@24_polysilicon-1##5 9.521
C44 b#2pin@24_polysilicon-1##5 0 0.18fF
R33 b#2pin@24_polysilicon-1##5 b#2pin@24_polysilicon-1##6 9.521
C45 b#2pin@24_polysilicon-1##6 0 0.18fF
R34 b#2pin@24_polysilicon-1##6 b#2pin@24_polysilicon-1##7 9.521
C46 b#2pin@24_polysilicon-1##7 0 0.18fF
R35 b#2pin@24_polysilicon-1##7 b#2pin@24_polysilicon-1##8 9.521
C47 b#2pin@24_polysilicon-1##8 0 0.18fF
R36 b#2pin@24_polysilicon-1##8 b#2pin@24_polysilicon-1##9 9.521
C48 b#2pin@24_polysilicon-1##9 0 0.18fF
R37 b#2pin@24_polysilicon-1##9 b#2pin@24_polysilicon-1##10 9.521
C49 b#2pin@24_polysilicon-1##10 0 0.18fF
R38 b#2pin@24_polysilicon-1##10 b#2pin@24_polysilicon-1##11 9.521
C50 b#2pin@24_polysilicon-1##11 0 0.18fF
R39 b#2pin@24_polysilicon-1##11 b#2pin@24_polysilicon-1##12 9.521
C51 b#2pin@24_polysilicon-1##12 0 0.18fF
R40 b#2pin@24_polysilicon-1##12 b#3pin@25_polysilicon-1 9.521
R41 b#2pin@24_polysilicon-1 b#0pin@10_polysilicon-1 9.3
R42 b b#3pin@25_polysilicon-1 9.3
R43 a#3pmos@0_poly-left a#3pmos@0_poly-left##0 9.3
C52 a#3pmos@0_poly-left##0 0 0.168fF
R44 a#3pmos@0_poly-left##0 a#3pmos@0_poly-left##1 9.3
C53 a#3pmos@0_poly-left##1 0 0.168fF
R45 a#3pmos@0_poly-left##1 a#3pmos@0_poly-left##2 9.3
C54 a#3pmos@0_poly-left##2 0 0.168fF
R46 a#3pmos@0_poly-left##2 a#3pmos@0_poly-left##3 9.3
C55 a#3pmos@0_poly-left##3 0 0.168fF
R47 a#3pmos@0_poly-left##3 a#3pmos@0_poly-left##4 9.3
C56 a#3pmos@0_poly-left##4 0 0.168fF
R48 a#3pmos@0_poly-left##4 a#3pmos@0_poly-left##5 9.3
C57 a#3pmos@0_poly-left##5 0 0.168fF
R49 a#3pmos@0_poly-left##5 a#3pmos@0_poly-left##6 9.3
C58 a#3pmos@0_poly-left##6 0 0.168fF
R50 a#3pmos@0_poly-left##6 a#4pin@26_polysilicon-1 9.3
R51 a#4pin@26_polysilicon-1 a#5pin@27_polysilicon-1 6.2
R52 a#5pin@27_polysilicon-1 a#5pin@27_polysilicon-1##0 9.3
C59 a#5pin@27_polysilicon-1##0 0 0.151fF
R53 a#5pin@27_polysilicon-1##0 a#5pin@27_polysilicon-1##1 9.3
C60 a#5pin@27_polysilicon-1##1 0 0.151fF
R54 a#5pin@27_polysilicon-1##1 a#5pin@27_polysilicon-1##2 9.3
C61 a#5pin@27_polysilicon-1##2 0 0.151fF
R55 a#5pin@27_polysilicon-1##2 a#6pin@28_polysilicon-1 9.3
R56 a#7pin@30_polysilicon-1 a#7pin@30_polysilicon-1##0 7.233
C62 a#7pin@30_polysilicon-1##0 0 0.11fF
R57 a#7pin@30_polysilicon-1##0 a#7pin@30_polysilicon-1##1 7.233
C63 a#7pin@30_polysilicon-1##1 0 0.11fF
R58 a#7pin@30_polysilicon-1##1 a 7.233
R59 a#6pin@28_polysilicon-1 a#7pin@30_polysilicon-1 6.2
R60 b#3pin@25_polysilicon-1 b#3pin@25_polysilicon-1##0 9.3
C64 b#3pin@25_polysilicon-1##0 0 0.151fF
R61 b#3pin@25_polysilicon-1##0 b#3pin@25_polysilicon-1##1 9.3
C65 b#3pin@25_polysilicon-1##1 0 0.151fF
R62 b#3pin@25_polysilicon-1##1 b#3pin@25_polysilicon-1##2 9.3
C66 b#3pin@25_polysilicon-1##2 0 0.151fF
R63 b#3pin@25_polysilicon-1##2 b#5pmos@1_poly-left 9.3
.ENDS and2_1x

*** SUBCIRCUIT BlackCell FROM CELL BlackCell{lay}
.SUBCKT BlackCell 0 G_i_j G_i_k G_k-1_j P_i_j P_i_k P_k-1_j vdd
Xa2o1_1x_0 0 P_i_k G_k-1_j G_i_k vdd G_i_j a2o1_1x
Xand2_1x_0 0 P_i_k P_k-1_j vdd P_i_j and2_1x
** Extracted Parasitic Capacitors ***
C0 P_i_k 0 7.331fF
** Extracted Parasitic Resistors ***
.ENDS BlackCell

*** SUBCIRCUIT GreyCell_2x FROM CELL GreyCell_2x{lay}
.SUBCKT GreyCell_2x 0 G_i_j G_i_k G_k-1_j P_i_k vdd
Xa2o1_2x_0 0 P_i_k G_k-1_j G_i_k vdd G_i_j a2o1_2x
** Extracted Parasitic Capacitors ***
** Extracted Parasitic Resistors ***
.ENDS GreyCell_2x

*** SUBCIRCUIT a2o1_4x FROM CELL a2o1_4x{lay}
.SUBCKT a2o1_4x 0 a b c vdd y
Mnmos_3 net_288 a#1pin@66_polysilicon-1 0 0 N L=2 W=12 AS=117 AD=21.75 PS=76 
+PD=17.5
Mnmos_4 net_259 b#5nmos@4_poly-right net_288 0 N L=2 W=12 AS=21.75 AD=54 
+PS=17.5 PD=27.333
Mnmos_5 0 c#5nmos@5_poly-right net_259 0 N L=2 W=12 AS=54 AD=117 PS=27.333 
+PD=76
Mnmos_6 y net_259#11nmos@6_poly-right 0 0 N L=2 W=27 AS=117 AD=160 PS=76 
+PD=74
Mpmos_4 vdd a#4pin@95_polysilicon-1 net_254 vdd P L=2 W=18 AS=66 AD=129.667 
+PS=31.333 PD=76
Mpmos_5 net_254 b#3pin@97_polysilicon-1 vdd vdd P L=2 W=18 AS=129.667 AD=66 
+PS=76 PD=31.333
Mpmos_6 net_259 c#1pin@100_polysilicon-1 net_254 vdd P L=2 W=18 AS=66 AD=54 
+PS=31.333 PD=27.333
Mpmos_8 y net_259#8pmos@8_poly-left vdd vdd P L=2 W=37 AS=129.667 AD=160 
+PS=76 PD=74
** Extracted Parasitic Capacitors ***
C0 a 0 0.376fF
C1 net_259 0 8.902fF
C2 b 0 0.383fF
C3 y 0 1.421fF
C4 c 0 0.383fF
C5 net_254 0 3.293fF
C6 a#1pin@66_polysilicon-1 0 0.168fF
C7 b#5nmos@4_poly-right 0 0.168fF
C8 c#5nmos@5_poly-right 0 0.168fF
C9 a#3pin@64_polysilicon-1 0 0.258fF
C10 a#0pin@65_polysilicon-1 0 0.328fF
C11 a#4pin@95_polysilicon-1 0 0.168fF
C12 b#2pin@96_polysilicon-1 0 0.247fF
C13 b#3pin@97_polysilicon-1 0 0.157fF
C14 c#0pin@99_polysilicon-1 0 0.247fF
C15 c#1pin@100_polysilicon-1 0 0.157fF
** Extracted Parasitic Resistors ***
R0 a#0pin@65_polysilicon-1 a#0pin@65_polysilicon-1##0 7.75
C16 a#0pin@65_polysilicon-1##0 0 0.105fF
R1 a#0pin@65_polysilicon-1##0 a#1pin@66_polysilicon-1 7.75
R2 a#3pin@64_polysilicon-1 a#3pin@64_polysilicon-1##0 7.75
C17 a#3pin@64_polysilicon-1##0 0 0.105fF
R3 a#3pin@64_polysilicon-1##0 a#4pin@95_polysilicon-1 7.75
R4 b b##0 8.783
C18 b##0 0 0.153fF
R5 b##0 b##1 8.783
C19 b##1 0 0.153fF
R6 b##1 b##2 8.783
C20 b##2 0 0.153fF
R7 b##2 b##3 8.783
C21 b##3 0 0.153fF
R8 b##3 b##4 8.783
C22 b##4 0 0.153fF
R9 b##4 b#2pin@96_polysilicon-1 8.783
R10 b#2pin@96_polysilicon-1 b#3pin@97_polysilicon-1 9.3
R11 c#0pin@99_polysilicon-1 c#1pin@100_polysilicon-1 9.3
R12 a#3pin@64_polysilicon-1 a#3pin@64_polysilicon-1##0 8.783
C23 a#3pin@64_polysilicon-1##0 0 0.153fF
R13 a#3pin@64_polysilicon-1##0 a#3pin@64_polysilicon-1##1 8.783
C24 a#3pin@64_polysilicon-1##1 0 0.153fF
R14 a#3pin@64_polysilicon-1##1 a#3pin@64_polysilicon-1##2 8.783
C25 a#3pin@64_polysilicon-1##2 0 0.153fF
R15 a#3pin@64_polysilicon-1##2 a#3pin@64_polysilicon-1##3 8.783
C26 a#3pin@64_polysilicon-1##3 0 0.153fF
R16 a#3pin@64_polysilicon-1##3 a#3pin@64_polysilicon-1##4 8.783
C27 a#3pin@64_polysilicon-1##4 0 0.153fF
R17 a#3pin@64_polysilicon-1##4 a 8.783
R18 a a##0 8.913
C28 a##0 0 0.161fF
R19 a##0 a##1 8.913
C29 a##1 0 0.161fF
R20 a##1 a##2 8.913
C30 a##2 0 0.161fF
R21 a##2 a##3 8.913
C31 a##3 0 0.161fF
R22 a##3 a##4 8.913
C32 a##4 0 0.161fF
R23 a##4 a##5 8.913
C33 a##5 0 0.161fF
R24 a##5 a##6 8.913
C34 a##6 0 0.161fF
R25 a##6 a#0pin@65_polysilicon-1 8.913
R26 c c##0 8.783
C35 c##0 0 0.153fF
R27 c##0 c##1 8.783
C36 c##1 0 0.153fF
R28 c##1 c##2 8.783
C37 c##2 0 0.153fF
R29 c##2 c##3 8.783
C38 c##3 0 0.153fF
R30 c##3 c##4 8.783
C39 c##4 0 0.153fF
R31 c##4 c#0pin@99_polysilicon-1 8.783
R32 net_259#8pmos@8_poly-left net_259#8pmos@8_poly-left##0 6.975
R33 net_259#8pmos@8_poly-left##0 net_259 6.975
R34 net_259 net_259##0 5.425
R35 net_259##0 net_259#11nmos@6_poly-right 5.425
R36 c c##0 9.3
C40 c##0 0 0.168fF
R37 c##0 c##1 9.3
C41 c##1 0 0.168fF
R38 c##1 c##2 9.3
C42 c##2 0 0.168fF
R39 c##2 c##3 9.3
C43 c##3 0 0.168fF
R40 c##3 c##4 9.3
C44 c##4 0 0.168fF
R41 c##4 c##5 9.3
C45 c##5 0 0.168fF
R42 c##5 c##6 9.3
C46 c##6 0 0.168fF
R43 c##6 c#5nmos@5_poly-right 9.3
R44 b b##0 9.3
C47 b##0 0 0.168fF
R45 b##0 b##1 9.3
C48 b##1 0 0.168fF
R46 b##1 b##2 9.3
C49 b##2 0 0.168fF
R47 b##2 b##3 9.3
C50 b##3 0 0.168fF
R48 b##3 b##4 9.3
C51 b##4 0 0.168fF
R49 b##4 b##5 9.3
C52 b##5 0 0.168fF
R50 b##5 b##6 9.3
C53 b##6 0 0.168fF
R51 b##6 b#5nmos@4_poly-right 9.3
.ENDS a2o1_4x

*** SUBCIRCUIT GreyCell_4x FROM CELL GreyCell_4x{lay}
.SUBCKT GreyCell_4x 0 G_i_j G_i_k G_k-1_j P_i_k vdd
Xa2o1_4x_0 0 P_i_k G_k-1_j G_i_k vdd G_i_j a2o1_4x
** Extracted Parasitic Capacitors ***
** Extracted Parasitic Resistors ***